<?xml version="1.0" encoding="UTF-8"?>
<routes xmlns:xsi="http://www.w3.org/2001/XMLSchema-instance" xsi:noNamespaceSchemaLocation="http://sumo.dlr.de/xsd/routes_file.xsd">
    <vType id="car" accel="2.6" decel="4.5" sigma="0.5" length="5" minGap="2.5" maxSpeed="15" />

    <route id="route_EW" edges="E2 E4"/>
    <route id="route_NS" edges="E3 E5"/>

    <flow id="flow_EW" type="car" route="route_EW" begin="0" end="3600" probability="0.2" />
    <flow id="flow_NS" type="car" route="route_NS" begin="0" end="3600" probability="0.2" />
</routes>